%chk=mol.chk
%nproc=1
#P opt(ts,calcfc,noeigen,nomicro) external='./xtb.sh'

Title Card Required

-1 1
 C           10.763246194         -0.423359279         -2.102157677
C           11.932459007         -0.069414520         -1.375648042
C           11.698029796          0.661631438         -0.178443848
C           10.476763885          1.139492469          0.193196181
C            9.313678525          0.985494164         -0.696213569
C            9.510997199          0.017185171         -1.788946085
H           10.331980552          1.645680939          1.139369709
H            8.640080020         -0.319347582         -2.337256204
C           13.299743189         -0.422293727         -1.841178818
H           13.592239431         -1.393858288         -1.434386160
H           13.336135912         -0.494199447         -2.926716642
H           14.028974042          0.311048619         -1.501604738
N           10.839774158         -1.375988930         -3.223571453
O           11.740356321         -2.166663559         -3.225059142
O            9.971428530         -1.306517368         -4.046104114
N           12.788803727          0.881743418          0.787643711
O           12.675657465          1.823467640          1.519245039
O           13.694065904          0.096346594          0.796449735
N            8.967078682          2.375140733         -1.349459109
O            9.876946976          2.902035411         -1.904095721
O            7.844063768          2.755570178         -1.263165249
O            8.043359454          0.631192658          0.135383795
H            7.361071075          1.286542957         -0.098837563

